Version 4
SHEET 1 1544 1148
WIRE -976 16 -1120 16
WIRE -832 16 -976 16
WIRE -768 16 -832 16
WIRE -384 16 -592 16
WIRE -240 16 -384 16
WIRE -96 16 -240 16
WIRE 48 16 -96 16
WIRE 192 16 48 16
WIRE 336 16 192 16
WIRE 752 16 384 16
WIRE -1120 48 -1120 16
WIRE -976 48 -976 16
WIRE -832 48 -832 16
WIRE -384 48 -384 16
WIRE -240 48 -240 16
WIRE 192 48 192 16
WIRE 752 48 752 16
WIRE 48 64 48 16
WIRE 384 64 384 16
WIRE 336 80 336 16
WIRE -384 176 -384 128
WIRE -240 176 -240 112
WIRE -240 176 -384 176
WIRE 48 176 48 128
WIRE 192 176 192 128
WIRE 192 176 48 176
WIRE 336 176 336 128
WIRE 336 176 192 176
WIRE 384 176 384 144
WIRE 432 176 384 176
WIRE 544 176 512 176
WIRE -1120 192 -1120 128
WIRE -976 192 -976 128
WIRE -832 192 -832 128
WIRE 48 208 48 176
WIRE 384 208 384 176
WIRE -240 224 -240 176
WIRE 192 224 192 176
WIRE -96 240 -96 16
WIRE 544 240 544 176
WIRE -384 288 -384 176
WIRE 0 288 -64 288
WIRE -1120 336 -1120 272
WIRE -976 336 -976 272
WIRE -976 336 -1120 336
WIRE -832 336 -832 272
WIRE -832 336 -976 336
WIRE -768 336 -832 336
WIRE -512 336 -592 336
WIRE -464 336 -512 336
WIRE -320 336 -368 336
WIRE -240 336 -240 288
WIRE -240 336 -320 336
WIRE -96 336 -96 320
WIRE -96 336 -240 336
WIRE 48 336 48 304
WIRE 48 336 -96 336
WIRE 192 336 192 288
WIRE 192 336 48 336
WIRE -1120 352 -1120 336
WIRE 384 352 384 288
WIRE 544 352 544 304
WIRE 752 352 752 128
WIRE -512 416 -512 336
WIRE -448 416 -512 416
WIRE -320 416 -320 336
WIRE -320 416 -384 416
WIRE -96 608 -592 608
WIRE 48 608 -96 608
WIRE 192 608 48 608
WIRE 336 608 192 608
WIRE 752 608 384 608
WIRE 192 640 192 608
WIRE 752 640 752 608
WIRE 48 656 48 608
WIRE 384 656 384 608
WIRE 336 672 336 608
WIRE 48 768 48 720
WIRE 192 768 192 720
WIRE 192 768 48 768
WIRE 336 768 336 720
WIRE 336 768 192 768
WIRE 384 768 384 736
WIRE 432 768 384 768
WIRE 544 768 512 768
WIRE 48 800 48 768
WIRE 384 800 384 768
WIRE 192 816 192 768
WIRE -96 832 -96 608
WIRE 544 832 544 768
WIRE 0 880 -64 880
WIRE -96 928 -96 912
WIRE -96 928 -592 928
WIRE 48 928 48 896
WIRE 48 928 -96 928
WIRE 192 928 192 880
WIRE 192 928 48 928
WIRE 384 944 384 880
WIRE 544 944 544 896
WIRE 752 944 752 720
FLAG -1120 352 0
FLAG 384 352 0
FLAG 752 352 0
FLAG 544 352 0
FLAG 384 944 0
FLAG 752 944 0
FLAG 544 944 0
FLAG -768 16 V+
FLAG -768 336 V-
FLAG -592 16 V+
FLAG -592 336 V-
FLAG -592 608 V+
FLAG -592 928 V-
SYMBOL Misc\\EuropeanResistor -1136 32 R0
SYMATTR InstName R1
SYMATTR Value 47
SYMBOL Misc\\EuropeanResistor -992 32 R0
SYMATTR InstName R3
SYMATTR Value 47
SYMBOL Misc\\EuropeanResistor -848 32 R0
SYMATTR InstName R4
SYMATTR Value 47
SYMBOL sw 384 160 M180
SYMATTR InstName S1
SYMBOL Misc\\EuropeanResistor 368 192 R0
SYMATTR InstName R5
SYMATTR Value 100
SYMBOL voltage 752 32 R0
WINDOW 123 0 0 Left 2
WINDOW 39 0 0 Left 2
SYMATTR InstName V5
SYMATTR Value 12V
SYMBOL Misc\\EuropeanResistor 528 160 R90
WINDOW 0 5 56 VBottom 2
WINDOW 3 27 56 VTop 2
SYMATTR InstName R7
SYMATTR Value 1k
SYMBOL LED 528 240 R0
SYMATTR InstName D1
SYMBOL nmos 0 208 R0
SYMATTR InstName M1
SYMATTR Value IRF3717
SYMBOL schottky 208 288 R180
WINDOW 0 -22 61 Left 2
WINDOW 3 -75 2 Left 2
SYMATTR InstName D2
SYMATTR Value 1N5817
SYMBOL diode 64 128 R180
WINDOW 0 24 64 Left 2
WINDOW 3 24 0 Left 2
SYMATTR InstName D3
SYMATTR Value 1N4148
SYMBOL pot -112 224 R0
SYMATTR InstName X2
SYMATTR SpiceLine R=10k Val=72.5
SYMBOL Misc\\EuropeanResistor 176 32 R0
SYMATTR InstName R6
SYMATTR Value 1k
SYMBOL voltage -832 176 R0
WINDOW 123 0 0 Left 2
WINDOW 39 0 0 Left 2
WINDOW 3 8 364 Left 2
SYMATTR Value PULSE(0 12V 1s 1ms 1ms 1s 3s 2)
SYMATTR InstName V1
SYMBOL voltage -976 176 R0
WINDOW 123 0 0 Left 2
WINDOW 39 0 0 Left 2
WINDOW 3 380 318 Right 2
SYMATTR Value PULSE(0 12V 1s 1ms 1ms 1s 3s 2)
SYMATTR InstName V2
SYMBOL voltage -1120 176 R0
WINDOW 123 0 0 Left 2
WINDOW 39 0 0 Left 2
WINDOW 3 -7 268 Left 2
SYMATTR Value PULSE(0 12V 1s 1ms 1ms 1s 3s 2)
SYMATTR InstName V3
SYMBOL nmos -464 288 M90
WINDOW 0 -18 50 VLeft 2
WINDOW 3 72 121 VLeft 2
SYMATTR InstName M2
SYMATTR Value IPB009N03L
SYMBOL Misc\\EuropeanResistor -400 32 R0
SYMATTR InstName R2
SYMATTR Value 12k
SYMBOL zener -224 288 R180
WINDOW 0 24 64 Left 2
WINDOW 3 -50 0 Left 2
SYMATTR InstName D4
SYMATTR Value BZX84C10L
SYMBOL cap -256 48 R0
SYMATTR InstName C1
SYMATTR Value 15n
SYMATTR SpiceLine V=50V
SYMBOL schottky -384 400 R90
WINDOW 0 0 32 VBottom 2
WINDOW 3 32 32 VTop 2
SYMATTR InstName D5
SYMATTR Value 1N5817
SYMBOL sw 384 752 M180
SYMATTR InstName S2
SYMBOL Misc\\EuropeanResistor 368 784 R0
SYMATTR InstName R11
SYMATTR Value 100
SYMBOL voltage 752 624 R0
WINDOW 123 0 0 Left 2
WINDOW 39 0 0 Left 2
SYMATTR InstName V4
SYMATTR Value 12V
SYMBOL Misc\\EuropeanResistor 528 752 R90
WINDOW 0 5 56 VBottom 2
WINDOW 3 27 56 VTop 2
SYMATTR InstName R12
SYMATTR Value 1k
SYMBOL LED 528 832 R0
SYMATTR InstName D6
SYMBOL nmos 0 800 R0
SYMATTR InstName M3
SYMATTR Value IRF3717
SYMBOL schottky 208 880 R180
WINDOW 0 -22 61 Left 2
WINDOW 3 -10 5 Left 2
SYMATTR InstName D7
SYMBOL diode 64 720 R180
WINDOW 0 24 64 Left 2
WINDOW 3 24 0 Left 2
SYMATTR InstName D8
SYMBOL pot -112 816 R0
SYMATTR InstName X1
SYMATTR SpiceLine R=10k Val=72.5
SYMBOL Misc\\EuropeanResistor 176 624 R0
SYMATTR InstName R13
SYMATTR Value 1k
TEXT 240 -56 Left 2 !.tran 0 15s 0 100m
TEXT 240 -24 Left 2 !.MODEL SW SW(Vt = 10.5V)
