Version 4
SHEET 1 2260 1148
WIRE 496 -592 464 -592
WIRE 608 -592 576 -592
WIRE 192 -528 192 -560
WIRE 192 -528 64 -528
WIRE 64 -512 64 -528
WIRE 192 -480 192 -528
WIRE 256 -480 192 -480
WIRE 432 -480 336 -480
WIRE 528 -464 528 -496
WIRE 192 -448 192 -480
WIRE 464 -448 464 -592
WIRE 464 -448 384 -448
WIRE 496 -448 464 -448
WIRE 800 -448 800 -464
WIRE 608 -432 608 -592
WIRE 608 -432 560 -432
WIRE 768 -432 608 -432
WIRE 64 -416 64 -432
WIRE 432 -416 432 -480
WIRE 496 -416 432 -416
WIRE 944 -416 832 -416
WIRE 768 -400 752 -400
WIRE 432 -368 432 -416
WIRE 528 -368 528 -400
WIRE 688 -368 688 -384
WIRE -864 -336 -864 -352
WIRE -752 -336 -752 -352
WIRE -640 -336 -640 -352
WIRE 192 -336 192 -368
WIRE 256 -336 192 -336
WIRE 384 -336 384 -448
WIRE 384 -336 336 -336
WIRE 64 -320 64 -352
WIRE 752 -320 752 -400
WIRE 752 -320 720 -320
WIRE 192 -304 192 -336
WIRE 432 -256 432 -288
WIRE 688 -256 688 -288
WIRE -864 -240 -864 -256
WIRE -752 -240 -752 -256
WIRE -640 -240 -640 -256
WIRE 48 -224 32 -224
WIRE 144 -224 128 -224
WIRE 192 -192 192 -208
WIRE -1008 -160 -1008 -176
WIRE -1008 -64 -1008 -80
WIRE -864 16 -1008 16
WIRE -720 16 -864 16
WIRE -640 16 -720 16
WIRE -592 16 -640 16
WIRE -448 16 -512 16
WIRE -384 16 -448 16
WIRE -240 16 -384 16
WIRE -96 16 -240 16
WIRE 48 16 -96 16
WIRE 192 16 48 16
WIRE 336 16 192 16
WIRE 496 16 384 16
WIRE 720 16 688 16
WIRE 832 16 800 16
WIRE 976 16 896 16
WIRE -1008 48 -1008 16
WIRE -864 48 -864 16
WIRE -720 48 -720 16
WIRE -384 48 -384 16
WIRE -240 48 -240 16
WIRE 192 48 192 16
WIRE 48 64 48 16
WIRE 384 64 384 16
WIRE -576 80 -576 64
WIRE -528 80 -528 64
WIRE 336 80 336 16
WIRE 720 128 688 128
WIRE 848 128 800 128
WIRE 992 128 848 128
WIRE 1136 128 992 128
WIRE 1216 128 1136 128
WIRE 848 160 848 128
WIRE 992 160 992 128
WIRE 1136 160 1136 128
WIRE -384 176 -384 128
WIRE -240 176 -240 112
WIRE -240 176 -384 176
WIRE 48 176 48 128
WIRE 192 176 192 128
WIRE 192 176 48 176
WIRE 336 176 336 128
WIRE 336 176 192 176
WIRE 384 176 384 144
WIRE 496 176 384 176
WIRE -1008 192 -1008 128
WIRE -864 192 -864 128
WIRE -720 192 -720 128
WIRE 48 208 48 176
WIRE -240 224 -240 176
WIRE 192 224 192 176
WIRE -96 240 -96 16
WIRE 848 272 848 240
WIRE 848 272 688 272
WIRE 992 272 992 224
WIRE 992 272 848 272
WIRE 1136 272 1136 224
WIRE 1136 272 992 272
WIRE -384 288 -384 176
WIRE 0 288 -64 288
WIRE 688 288 688 272
WIRE -1008 336 -1008 272
WIRE -864 336 -864 272
WIRE -864 336 -1008 336
WIRE -720 336 -720 272
WIRE -720 336 -864 336
WIRE -512 336 -720 336
WIRE -464 336 -512 336
WIRE -320 336 -368 336
WIRE -240 336 -240 288
WIRE -240 336 -320 336
WIRE -96 336 -96 320
WIRE -96 336 -240 336
WIRE 48 336 48 304
WIRE 48 336 -96 336
WIRE 192 336 192 288
WIRE 192 336 48 336
WIRE -1008 368 -1008 336
WIRE -512 416 -512 336
WIRE -448 416 -512 416
WIRE -320 416 -320 336
WIRE -320 416 -384 416
FLAG -1008 368 0
FLAG 976 16 0
FLAG -640 16 Vbat+
FLAG -448 16 Vload+
FLAG 688 16 Vload+
FLAG 688 128 Vload+
FLAG 688 288 0
FLAG 1216 128 ADC
FLAG 496 16 Vload+
FLAG 496 176 AP1
FLAG -1008 -64 0
FLAG -1008 -176 SW
FLAG -576 80 SW
FLAG -528 80 0
FLAG -752 -352 5V
FLAG -752 -240 0
FLAG -640 -352 12V
FLAG -640 -240 0
FLAG 432 -256 0
FLAG 528 -368 0
FLAG 192 -192 0
FLAG 32 -224 OVERCURRENT
FLAG -864 -240 0
FLAG -864 -352 OVERCURRENT
FLAG 192 -560 12V
FLAG 64 -320 0
FLAG 800 -464 0
FLAG 944 -416 AP1
FLAG 528 -496 5V
FLAG 800 -384 5V
FLAG 688 -256 0
FLAG 688 -384 5V
SYMBOL Misc\\EuropeanResistor -992 144 R180
WINDOW 0 31 76 Left 2
WINDOW 3 31 40 Left 2
SYMATTR InstName R1
SYMATTR Value 47
SYMBOL Misc\\EuropeanResistor -848 144 R180
WINDOW 0 31 76 Left 2
WINDOW 3 31 40 Left 2
SYMATTR InstName R3
SYMATTR Value 47
SYMBOL Misc\\EuropeanResistor -704 144 R180
WINDOW 0 31 76 Left 2
WINDOW 3 31 40 Left 2
SYMATTR InstName R4
SYMATTR Value 47
SYMBOL sw 384 160 M180
SYMATTR InstName S1
SYMATTR Value DPST
SYMBOL Misc\\EuropeanResistor 704 32 R270
WINDOW 0 27 56 VTop 2
WINDOW 3 5 56 VBottom 2
SYMATTR InstName R7
SYMATTR Value 1k
SYMBOL LED 832 32 R270
WINDOW 0 72 32 VTop 2
WINDOW 3 0 32 VBottom 2
SYMATTR InstName D1
SYMBOL nmos 0 208 R0
SYMATTR InstName M1
SYMATTR Value IRF3717
SYMBOL diode 208 288 R180
WINDOW 0 -22 61 Left 2
WINDOW 3 -75 2 Left 2
SYMATTR InstName D2
SYMATTR Value 1N4148
SYMATTR Description Schottky diode
SYMATTR Type schottky
SYMBOL diode 64 128 R180
WINDOW 0 24 64 Left 2
WINDOW 3 24 0 Left 2
SYMATTR InstName D3
SYMATTR Value 1N4148
SYMBOL pot -112 224 R0
SYMATTR InstName X2
SYMATTR SpiceLine R=10k Val=72.5
SYMBOL Misc\\EuropeanResistor 176 32 R0
SYMATTR InstName R6
SYMATTR Value 1k
SYMBOL voltage -720 176 R0
WINDOW 123 0 0 Left 2
WINDOW 39 0 0 Left 2
WINDOW 3 -154 337 Left 2
SYMATTR Value PULSE(0 12V 1s 1ms 1ms 2s 3s 5)
SYMATTR InstName V1
SYMBOL voltage -864 176 R0
WINDOW 123 0 0 Left 2
WINDOW 39 0 0 Left 2
WINDOW 3 292 291 Right 2
SYMATTR Value PULSE(0 12V 1s 1ms 1ms 2s 3s 5)
SYMATTR InstName V2
SYMBOL voltage -1008 176 R0
WINDOW 123 0 0 Left 2
WINDOW 39 0 0 Left 2
WINDOW 3 -6 245 Left 2
SYMATTR Value PULSE(0 12V 1s 1ms 1ms 2s 3s 5)
SYMATTR InstName V3
SYMBOL nmos -464 288 M90
WINDOW 0 -18 50 VLeft 2
WINDOW 3 72 121 VLeft 2
SYMATTR InstName M2
SYMATTR Value IPB009N03L
SYMBOL Misc\\EuropeanResistor -400 32 R0
SYMATTR InstName R2
SYMATTR Value 12k
SYMBOL zener -224 288 R180
WINDOW 0 24 64 Left 2
WINDOW 3 -50 0 Left 2
SYMATTR InstName D4
SYMATTR Value DMZ8551
SYMBOL cap -256 48 R0
SYMATTR InstName C1
SYMATTR Value 15n
SYMATTR SpiceLine V=50V
SYMBOL Misc\\EuropeanResistor 704 144 R270
WINDOW 0 27 56 VTop 2
WINDOW 3 5 56 VBottom 2
SYMATTR InstName R5
SYMATTR Value 100k
SYMBOL Misc\\EuropeanResistor 832 144 R0
SYMATTR InstName R8
SYMATTR Value 27k
SYMBOL cap 976 160 R0
WINDOW 0 -43 22 Left 2
WINDOW 3 -45 60 Left 2
SYMATTR InstName C2
SYMATTR Value 100n
SYMBOL zener 1152 224 R180
WINDOW 0 24 64 Left 2
WINDOW 3 24 0 Left 2
SYMATTR InstName D9
SYMATTR Value DMZ8551
SYMBOL diode -384 400 R90
WINDOW 0 0 32 VBottom 2
WINDOW 3 32 32 VTop 2
SYMATTR InstName D5
SYMATTR Value 1N4148
SYMATTR Description Schottky diode
SYMATTR Type schottky
SYMBOL voltage -1008 -176 R0
WINDOW 123 0 0 Left 2
WINDOW 39 0 0 Left 2
SYMATTR InstName V4
SYMATTR Value PULSE(0V 5.1V 2s 1m 1m 6s 8s 1)
SYMBOL sw -496 16 M270
WINDOW 0 41 29 Left 2
WINDOW 3 39 75 Left 2
SYMATTR InstName S2
SYMATTR Value BTN
SYMBOL voltage -752 -352 R0
WINDOW 123 0 0 Left 2
WINDOW 39 0 0 Left 2
SYMATTR InstName V5
SYMATTR Value 5V
SYMBOL nmos 144 -304 R0
SYMATTR InstName M3
SYMBOL voltage -640 -352 R0
WINDOW 123 0 0 Left 2
WINDOW 39 0 0 Left 2
SYMATTR InstName V6
SYMATTR Value 12V
SYMBOL Misc\\EuropeanResistor 32 -208 R270
WINDOW 0 27 56 VTop 2
WINDOW 3 5 56 VBottom 2
SYMATTR InstName R9
SYMATTR Value 1k
SYMBOL Misc\\EuropeanResistor 176 -464 R0
SYMATTR InstName R10
SYMATTR Value 0.1
SYMBOL Misc\\EuropeanResistor 240 -464 R270
WINDOW 0 27 56 VTop 2
WINDOW 3 5 56 VBottom 2
SYMATTR InstName R11
SYMATTR Value 1k
SYMBOL Misc\\EuropeanResistor 240 -320 R270
WINDOW 0 27 56 VTop 2
WINDOW 3 5 56 VBottom 2
SYMATTR InstName R12
SYMATTR Value 1k
SYMBOL Misc\\EuropeanResistor 416 -384 R0
SYMATTR InstName R13
SYMATTR Value 20k
SYMBOL Misc\\EuropeanResistor 480 -576 R270
WINDOW 0 27 56 VTop 2
WINDOW 3 5 56 VBottom 2
SYMATTR InstName R14
SYMATTR Value 20k
SYMBOL voltage -864 -352 R0
WINDOW 123 0 0 Left 2
WINDOW 39 0 0 Left 2
SYMATTR InstName V7
SYMATTR Value 3.3V
SYMBOL Misc\\EuropeanResistor 48 -528 R0
SYMATTR InstName R15
SYMATTR Value 1k
SYMBOL LED 48 -416 R0
SYMATTR InstName D6
SYMBOL Opamps\\UniversalOpamp2 528 -432 R0
SYMATTR InstName U1
SYMBOL Opamps\\UniversalOpamp2 800 -416 M180
SYMATTR InstName U2
SYMBOL pot 672 -384 R0
WINDOW 0 39 32 Left 2
SYMATTR InstName X1
SYMATTR SpiceLine R=10k Val=72.5
TEXT -504 -200 Left 2 !.tran 0 15s 0 100m
TEXT -504 -168 Left 2 !.model DPST SW(Vt=10)\n.model BTN SW(Vt=5)\n.model DMZ8551 D(Is=0.6n Rs=.5 Cjo=150p nbv=5 bv=5.1 Ibv=1m Vpk=5.1 mfg=OnSemi type=Zener)
TEXT -144 -536 Left 2 ;Boost-Converter
