Version 4
SHEET 1 2360 708
WIRE 240 -736 128 -736
WIRE 432 -736 320 -736
WIRE 960 -736 736 -736
WIRE 736 -720 736 -736
WIRE 128 -624 128 -736
WIRE 432 -624 432 -736
WIRE 464 -624 432 -624
WIRE 736 -624 736 -640
WIRE 736 -624 656 -624
WIRE 800 -624 736 -624
WIRE 960 -624 960 -736
WIRE 464 -528 432 -528
WIRE 736 -528 656 -528
WIRE 128 -448 128 -544
WIRE 288 -448 128 -448
WIRE 432 -448 432 -528
WIRE 432 -448 288 -448
WIRE 736 -448 736 -528
WIRE 848 -448 736 -448
WIRE 960 -448 960 -544
WIRE 960 -448 848 -448
WIRE 288 -416 288 -448
WIRE 848 -416 848 -448
WIRE 640 -368 640 -400
WIRE 1104 -368 1104 -400
WIRE -432 -336 -448 -336
WIRE -336 -336 -352 -336
WIRE -176 -272 -208 -272
WIRE -64 -272 -96 -272
WIRE 64 -272 -64 -272
WIRE 208 -272 64 -272
WIRE 256 -272 208 -272
WIRE 400 -272 368 -272
WIRE 512 -272 480 -272
WIRE 640 -272 640 -304
WIRE 640 -272 512 -272
WIRE 688 -272 640 -272
WIRE 864 -272 832 -272
WIRE 1104 -272 1104 -304
WIRE 1104 -272 944 -272
WIRE 1152 -272 1104 -272
WIRE -432 -240 -448 -240
WIRE -336 -240 -352 -240
WIRE -64 -240 -64 -272
WIRE 64 -240 64 -272
WIRE 208 -240 208 -272
WIRE 512 -240 512 -272
WIRE 640 -240 640 -272
WIRE 1104 -240 1104 -272
WIRE -432 -144 -448 -144
WIRE -336 -144 -352 -144
WIRE -64 -144 -64 -160
WIRE 64 -144 64 -176
WIRE 64 -144 -64 -144
WIRE 208 -144 208 -176
WIRE 208 -144 64 -144
WIRE 512 -144 512 -160
WIRE 640 -144 640 -176
WIRE 640 -144 512 -144
WIRE 208 -128 208 -144
WIRE 640 -128 640 -144
WIRE 1104 -128 1104 -176
FLAG -208 -272 12V
FLAG 256 -272 AP1
FLAG -448 -240 0
FLAG -336 -240 12V
FLAG -448 -144 0
FLAG -336 -144 5V
FLAG 368 -272 12V
FLAG 688 -272 AP2
FLAG 640 -128 0
FLAG 640 -400 5V
FLAG -448 -336 0
FLAG -336 -336 24V
FLAG 208 -128 0
FLAG 832 -272 5V
FLAG 1152 -272 AP3
FLAG 1104 -128 0
FLAG 1104 -400 5V
FLAG 800 -624 AP4
FLAG 848 -416 0
FLAG 288 -416 0
SYMBOL voltage -336 -240 R90
WINDOW 3 24 96 Invisible 2
WINDOW 123 0 0 Left 2
WINDOW 39 0 0 Left 2
SYMATTR Value PULSE(0V 12V 0 25m 25m 0 50m)
SYMATTR InstName V1
SYMBOL voltage -336 -144 R90
WINDOW 3 24 96 Invisible 2
WINDOW 123 0 0 Left 2
WINDOW 39 0 0 Left 2
SYMATTR Value PULSE(0V 5V 0 25m 25m 0 50m)
SYMATTR InstName V2
SYMBOL zener 224 -176 R180
WINDOW 0 70 42 Right 2
WINDOW 3 105 8 Right 2
SYMATTR InstName D2
SYMATTR Value DMZ8551
SYMBOL Misc\\EuropeanResistor -80 -288 R90
WINDOW 0 5 56 VBottom 2
WINDOW 3 27 56 VTop 2
SYMATTR InstName R1
SYMATTR Value 100k
SYMBOL diode 656 -176 R180
WINDOW 0 -8 51 Right 2
WINDOW 3 -7 14 Right 2
SYMATTR InstName D1
SYMATTR Value 1N4148
SYMATTR Description Zener Diode
SYMATTR Type zener
SYMBOL Misc\\EuropeanResistor 496 -288 R90
WINDOW 0 5 56 VBottom 2
WINDOW 3 27 56 VTop 2
SYMATTR InstName R2
SYMATTR Value 100k
SYMBOL diode 656 -304 R180
WINDOW 0 -5 53 Right 2
WINDOW 3 -3 11 Right 2
SYMATTR InstName D3
SYMATTR Value 1N4148
SYMATTR Description Zener Diode
SYMATTR Type zener
SYMBOL Misc\\EuropeanResistor 528 -144 R180
WINDOW 0 31 76 Left 2
WINDOW 3 31 40 Left 2
SYMATTR InstName R3
SYMATTR Value 27k
SYMBOL voltage -336 -336 R90
WINDOW 3 24 44 Invisible 2
WINDOW 123 0 0 Left 2
WINDOW 39 0 0 Left 2
SYMATTR Value PULSE(0V 24V 0 25m 25m 0 50m)
SYMATTR InstName V3
SYMBOL Misc\\EuropeanResistor -48 -144 R180
WINDOW 0 31 76 Left 2
WINDOW 3 31 40 Left 2
SYMATTR InstName R4
SYMATTR Value 27k
SYMBOL diode 1120 -176 R180
WINDOW 0 -8 51 Right 2
WINDOW 3 -7 14 Right 2
SYMATTR InstName D4
SYMATTR Value 1N4148
SYMATTR Description Zener Diode
SYMATTR Type zener
SYMBOL Misc\\EuropeanResistor 960 -288 R90
WINDOW 0 5 56 VBottom 2
WINDOW 3 27 56 VTop 2
SYMATTR InstName R5
SYMATTR Value 100k
SYMBOL diode 1120 -304 R180
WINDOW 0 -5 53 Right 2
WINDOW 3 -3 11 Right 2
SYMATTR InstName D5
SYMATTR Value 1N4148
SYMATTR Description Zener Diode
SYMATTR Type zener
SYMBOL voltage 128 -640 R0
WINDOW 3 -285 121 Left 2
WINDOW 123 0 0 Left 2
WINDOW 39 0 0 Left 2
SYMATTR Value PULSE(0V 12V 0 10u 10u 25m 50m)
SYMATTR InstName V4
SYMBOL Misc\\EuropeanResistor 224 -720 R270
WINDOW 0 27 56 VTop 2
WINDOW 3 5 56 VBottom 2
SYMATTR InstName R6
SYMATTR Value 1k
SYMBOL Misc\\EuropeanResistor 720 -736 R0
SYMATTR InstName R7
SYMATTR Value 10k
SYMBOL voltage 960 -640 R0
WINDOW 3 25 89 Left 2
WINDOW 123 0 0 Left 2
WINDOW 39 0 0 Left 2
SYMATTR Value 5V
SYMATTR InstName V5
SYMBOL Optos\\PC817D 560 -576 R0
SYMATTR InstName U1
SYMBOL cap 48 -240 R0
WINDOW 0 -23 9 Left 2
WINDOW 3 -43 54 Left 2
SYMATTR InstName C1
SYMATTR Value 100n
TEXT -200 -48 Left 2 !.tran 0 200m 0 100m startup
TEXT -200 -16 Left 2 !.model DMZ8551 D(Is=0.6n Rs=.5 Cjo=150p nbv=5 bv=5.1 Ibv=1m Vpk=5.1 mfg=OnSemi type=Zener)
