Version 4
SHEET 1 1764 680
WIRE -624 -112 -752 -112
WIRE -464 -112 -624 -112
WIRE -144 -112 -272 -112
WIRE 144 -112 -144 -112
WIRE 208 -112 144 -112
WIRE 400 -112 208 -112
WIRE 464 -112 400 -112
WIRE 528 -112 464 -112
WIRE -464 -96 -464 -112
WIRE -272 -96 -272 -112
WIRE -752 -80 -752 -112
WIRE 144 -80 144 -112
WIRE 400 -80 400 -112
WIRE -144 -64 -144 -112
WIRE 208 -64 208 -112
WIRE 464 -64 464 -112
WIRE 528 -64 528 -112
WIRE -624 -16 -624 -112
WIRE -544 -16 -624 -16
WIRE -624 0 -624 -16
WIRE -464 0 -464 -16
WIRE -272 0 -272 -16
WIRE -720 16 -816 16
WIRE -656 16 -720 16
WIRE -32 16 -32 -16
WIRE 400 16 400 -16
WIRE 464 16 464 -16
WIRE 464 16 400 16
WIRE -512 32 -592 32
WIRE 528 32 528 -16
WIRE -816 48 -816 16
WIRE -752 48 -752 0
WIRE -656 48 -752 48
WIRE 464 48 464 16
WIRE -752 64 -752 48
WIRE -144 64 -144 16
WIRE -32 64 -144 64
WIRE 32 64 -32 64
WIRE 208 64 208 0
WIRE 272 64 208 64
WIRE -624 80 -624 64
WIRE 32 96 32 64
WIRE 208 96 208 64
WIRE -144 112 -144 64
WIRE 144 112 144 0
WIRE 176 112 144 112
WIRE 336 128 240 128
WIRE 528 128 528 112
WIRE -816 144 -816 128
WIRE -544 144 -544 -16
WIRE -544 144 -624 144
WIRE 176 144 64 144
WIRE -752 160 -752 144
WIRE -656 160 -752 160
WIRE 400 160 400 144
WIRE 464 160 464 128
WIRE 464 160 400 160
WIRE -512 176 -512 32
WIRE -512 176 -592 176
WIRE 464 176 464 160
WIRE -752 192 -752 160
WIRE -720 192 -720 16
WIRE -656 192 -720 192
WIRE -512 192 -512 176
WIRE 208 192 208 160
WIRE 224 192 208 192
WIRE -624 208 -624 192
WIRE -144 208 -144 176
WIRE -32 224 -32 64
WIRE 208 224 208 192
WIRE 144 240 144 112
WIRE 176 240 144 240
WIRE 336 256 336 128
WIRE 336 256 240 256
WIRE 416 256 336 256
WIRE 176 272 0 272
WIRE -752 288 -752 272
WIRE -624 288 -624 208
WIRE -512 288 -512 272
WIRE -32 320 -32 304
WIRE 32 320 32 176
WIRE 32 320 -32 320
WIRE 208 320 208 288
WIRE 272 320 272 64
WIRE 272 320 208 320
WIRE -576 336 -752 336
WIRE -464 336 -576 336
WIRE -32 336 -32 320
WIRE 64 336 64 320
WIRE 144 336 144 240
WIRE 336 336 336 256
WIRE -576 368 -576 336
WIRE -608 384 -784 384
WIRE -528 400 -544 400
WIRE -496 400 -528 400
WIRE -752 416 -752 336
WIRE -736 416 -752 416
WIRE -640 416 -656 416
WIRE -608 416 -640 416
WIRE -784 448 -784 384
WIRE -576 448 -576 432
WIRE -464 448 -464 336
WIRE -32 448 -32 416
WIRE 64 448 64 400
WIRE 144 448 144 416
WIRE 336 448 336 416
WIRE 464 448 464 272
WIRE -640 496 -640 416
WIRE -624 496 -640 496
WIRE -528 496 -528 400
WIRE -528 496 -544 496
WIRE -784 544 -784 528
WIRE -464 544 -464 528
FLAG -144 208 0
FLAG -32 16 0
FLAG 144 448 0
FLAG -32 448 0
FLAG -272 0 0
FLAG 64 448 0
FLAG 464 448 0
FLAG 528 128 0
FLAG 224 192 0
FLAG -816 144 0
FLAG -752 288 0
FLAG -624 288 0
FLAG -624 80 0
FLAG -464 0 0
FLAG -512 288 0
FLAG -576 448 0
FLAG -464 544 0
FLAG -784 544 0
FLAG 336 448 0
SYMBOL Misc\\EuropeanResistor -16 432 R180
WINDOW 0 31 76 Left 2
WINDOW 3 31 40 Left 2
SYMATTR InstName R3
SYMATTR Value 47k
SYMBOL voltage -272 -112 R0
WINDOW 123 0 0 Left 2
WINDOW 39 0 0 Left 2
WINDOW 3 -4 -43 Left 2
SYMATTR Value PULSE(8V 16V 0 25m 25m 0 50m)
SYMATTR InstName V1
SYMBOL pot -48 208 R0
WINDOW 0 -38 25 Left 2
SYMATTR InstName X1
SYMATTR SpiceLine R=100k Val=84
SYMBOL Misc\\EuropeanResistor -160 -80 R0
SYMATTR InstName R4
SYMATTR Value 4.7k
SYMBOL zener -128 176 R180
WINDOW 0 24 64 Left 2
WINDOW 3 24 0 Left 2
SYMATTR InstName D2
SYMATTR Value BZX84B6V2L
SYMATTR Description Diode
SYMATTR Type diode
SYMBOL polcap -48 -80 R0
SYMATTR InstName C2
SYMATTR Value 0.1µ
SYMBOL pot 16 80 R0
WINDOW 0 -40 24 Left 2
SYMATTR InstName X2
SYMATTR SpiceLine R=100k Val=42
SYMBOL Misc\\EuropeanResistor 160 16 R180
WINDOW 0 31 76 Left 2
WINDOW 3 31 40 Left 2
SYMATTR InstName R5
SYMATTR Value 20k
SYMBOL Misc\\EuropeanResistor 160 432 R180
WINDOW 0 -31 76 Left 2
WINDOW 3 -38 35 Left 2
SYMATTR InstName R6
SYMATTR Value 10k
SYMBOL polcap 48 336 R0
SYMATTR InstName C3
SYMATTR Value 47µ
SYMATTR SpiceLine V=16V
SYMBOL diode 192 -64 R0
SYMATTR InstName D3
SYMATTR Value 1N4148
SYMBOL polcap 384 80 R0
WINDOW 0 22 8 Left 2
WINDOW 3 21 58 Left 2
SYMATTR InstName C1
SYMATTR Value 470µ
SYMATTR SpiceLine V=16V
SYMBOL diode 416 -16 R180
WINDOW 0 24 64 Left 2
WINDOW 3 22 -18 Left 2
SYMATTR InstName D1
SYMATTR Value 1N4148
SYMBOL Opamps\\UniversalOpamp2 208 128 R0
SYMATTR InstName U5
SYMBOL Opamps\\UniversalOpamp2 208 256 M180
SYMATTR InstName U6
SYMBOL relais 496 -32 R0
WINDOW 39 35 -12 Left 2
SYMATTR InstName X3
SYMATTR SpiceLine ION=7m IOFF=2m LL=63m RR=510
SYMBOL Opamps\\UniversalOpamp2 -624 32 R0
SYMATTR InstName U1
SYMBOL Opamps\\UniversalOpamp2 -624 176 R0
SYMATTR InstName U2
SYMBOL res -768 -96 R0
SYMATTR InstName R12
SYMATTR Value 100
SYMBOL res -768 48 R0
SYMATTR InstName R13
SYMATTR Value 100
SYMBOL res -768 176 R0
SYMATTR InstName R14
SYMATTR Value 100
SYMBOL voltage -816 32 R0
WINDOW 0 -44 8 Left 2
WINDOW 3 33 -189 Left 2
WINDOW 123 0 0 Left 2
WINDOW 39 0 0 Left 2
SYMATTR InstName V2
SYMATTR Value PULSE(0V 12V 0 25m 25m 0 50m)
SYMBOL voltage -464 -112 R0
WINDOW 123 0 0 Left 2
WINDOW 39 0 0 Left 2
SYMATTR InstName V3
SYMATTR Value 12V
SYMBOL res -528 176 R0
SYMATTR InstName R15
SYMATTR Value 100
SYMBOL voltage -784 432 R0
WINDOW 3 -13 155 Left 2
WINDOW 123 0 0 Left 2
WINDOW 39 0 0 Left 2
SYMATTR InstName V4
SYMATTR Value PULSE(0V 16V 0 25m 25m 0 50m)
SYMBOL Opamps\\UniversalOpamp2 -576 400 R0
SYMATTR InstName U7
SYMBOL res -640 400 R90
WINDOW 0 0 56 VBottom 2
WINDOW 3 32 56 VTop 2
SYMATTR InstName R16
SYMATTR Value 10k
SYMBOL res -528 480 R90
WINDOW 0 0 56 VBottom 2
WINDOW 3 32 56 VTop 2
SYMATTR InstName R17
SYMATTR Value 90k
SYMBOL voltage -464 432 R0
WINDOW 123 0 0 Left 2
WINDOW 39 0 0 Left 2
SYMATTR InstName V5
SYMATTR Value 12V
SYMBOL nmos 416 176 R0
SYMATTR InstName M1
SYMATTR Value 2N7002
SYMBOL Misc\\EuropeanResistor 352 432 R180
WINDOW 0 -31 76 Left 2
WINDOW 3 -38 35 Left 2
SYMATTR InstName R2
SYMATTR Value 10k
SYMBOL Misc\\EuropeanResistor 448 32 R0
WINDOW 3 29 80 Left 2
SYMATTR InstName R7
SYMATTR Value 150
SYMBOL Misc\\EuropeanResistor 512 16 R0
SYMATTR InstName R1
SYMATTR Value 100
TEXT -296 584 Left 2 !.tran 0 200m 0 100m startup
